\ProvidesPackage{style}

\usetheme{CambridgeUS}
\setbeamercolor{block title}{fg=gray!45!white,bg=darkred!80!black}

\usepackage{etoolbox}
\makeatletter
\patchcmd{\beamer@sectionintoc}{\vskip1.5em}{\vskip0.5em}{}{}
\makeatother

\makeatletter
\numberwithin{section}{part}
\AtBeginPart{
	\beamer@tocsectionnumber=0\relax
	\setcounter{section}{0}
}
\makeatother

\AtBeginSection{
	\begin{frame}{Outline}
	\tableofcontents[currentsection, hideothersubsections]
	\end{frame}
}

\graphicspath{ {./img/} }

\usepackage{listings}
\lstset{
	basicstyle=\footnotesize\ttfamily,
	keywordstyle=\color{blue}\ttfamily,
	stringstyle=\color{red}\ttfamily,
	commentstyle=\color{green!60!black}\ttfamily,
	morecomment=[l][\color{green}]{\#},
	numberstyle=\tiny,
	numbersep=5pt,
	numbers=left,
	tabsize=2,
	captionpos=b,
	xleftmargin=2em,
	framexleftmargin=1.5em
}

% Fix font size warnings
\usepackage{lmodern}

\usepackage{tikz-timing}

\logo{
	\href{http://www.aerodynelabs.com}{
		\includegraphics[height=0.05\paperheight]{AeroDyne_Banner}
	}
}